* NGSPICE file created from user_analog_project_wrapper.ext - technology: sky130B

.subckt sky130_fd_sc_hd__and4_4 A B C D VGND VPWR X VNB VPB
X0 VPWR a_27_47# X VPB sky130_fd_pr__pfet_01v8_hvt ad=1.43e+12p pd=1.286e+07u as=5.4e+11p ps=5.08e+06u w=1e+06u l=150000u
X1 X a_27_47# VPWR VPB sky130_fd_pr__pfet_01v8_hvt ad=0p pd=0u as=0p ps=0u w=1e+06u l=150000u
X2 a_188_47# B a_109_47# VNB sky130_fd_pr__nfet_01v8 ad=2.1775e+11p pd=1.97e+06u as=1.5925e+11p ps=1.79e+06u w=650000u l=150000u
X3 VPWR a_27_47# X VPB sky130_fd_pr__pfet_01v8_hvt ad=0p pd=0u as=0p ps=0u w=1e+06u l=150000u
X4 VGND D a_285_47# VNB sky130_fd_pr__nfet_01v8 ad=5.5575e+11p pd=5.61e+06u as=2.8275e+11p ps=2.17e+06u w=650000u l=150000u
X5 VPWR D a_27_47# VPB sky130_fd_pr__pfet_01v8_hvt ad=0p pd=0u as=7e+11p ps=5.4e+06u w=1e+06u l=150000u
X6 X a_27_47# VPWR VPB sky130_fd_pr__pfet_01v8_hvt ad=0p pd=0u as=0p ps=0u w=1e+06u l=150000u
X7 VGND a_27_47# X VNB sky130_fd_pr__nfet_01v8 ad=0p pd=0u as=3.51e+11p ps=3.68e+06u w=650000u l=150000u
X8 VPWR B a_27_47# VPB sky130_fd_pr__pfet_01v8_hvt ad=0p pd=0u as=0p ps=0u w=1e+06u l=150000u
X9 X a_27_47# VGND VNB sky130_fd_pr__nfet_01v8 ad=0p pd=0u as=0p ps=0u w=650000u l=150000u
X10 X a_27_47# VGND VNB sky130_fd_pr__nfet_01v8 ad=0p pd=0u as=0p ps=0u w=650000u l=150000u
X11 a_27_47# C VPWR VPB sky130_fd_pr__pfet_01v8_hvt ad=0p pd=0u as=0p ps=0u w=1e+06u l=150000u
X12 VGND a_27_47# X VNB sky130_fd_pr__nfet_01v8 ad=0p pd=0u as=0p ps=0u w=650000u l=150000u
X13 a_27_47# A VPWR VPB sky130_fd_pr__pfet_01v8_hvt ad=0p pd=0u as=0p ps=0u w=1e+06u l=150000u
X14 a_285_47# C a_188_47# VNB sky130_fd_pr__nfet_01v8 ad=0p pd=0u as=0p ps=0u w=650000u l=150000u
X15 a_109_47# A a_27_47# VNB sky130_fd_pr__nfet_01v8 ad=0p pd=0u as=1.69e+11p ps=1.82e+06u w=650000u l=150000u
.ends

.subckt sky130_fd_sc_hd__inv_16 A VGND VPWR Y VNB VPB
X0 Y A VPWR VPB sky130_fd_pr__pfet_01v8_hvt ad=2.16e+12p pd=2.032e+07u as=2.41e+12p ps=2.282e+07u w=1e+06u l=150000u
X1 VPWR A Y VPB sky130_fd_pr__pfet_01v8_hvt ad=0p pd=0u as=0p ps=0u w=1e+06u l=150000u
X2 VGND A Y VNB sky130_fd_pr__nfet_01v8 ad=1.5665e+12p pd=1.652e+07u as=1.404e+12p ps=1.472e+07u w=650000u l=150000u
X3 Y A VPWR VPB sky130_fd_pr__pfet_01v8_hvt ad=0p pd=0u as=0p ps=0u w=1e+06u l=150000u
X4 VGND A Y VNB sky130_fd_pr__nfet_01v8 ad=0p pd=0u as=0p ps=0u w=650000u l=150000u
X5 VGND A Y VNB sky130_fd_pr__nfet_01v8 ad=0p pd=0u as=0p ps=0u w=650000u l=150000u
X6 Y A VPWR VPB sky130_fd_pr__pfet_01v8_hvt ad=0p pd=0u as=0p ps=0u w=1e+06u l=150000u
X7 VGND A Y VNB sky130_fd_pr__nfet_01v8 ad=0p pd=0u as=0p ps=0u w=650000u l=150000u
X8 VPWR A Y VPB sky130_fd_pr__pfet_01v8_hvt ad=0p pd=0u as=0p ps=0u w=1e+06u l=150000u
X9 Y A VGND VNB sky130_fd_pr__nfet_01v8 ad=0p pd=0u as=0p ps=0u w=650000u l=150000u
X10 VPWR A Y VPB sky130_fd_pr__pfet_01v8_hvt ad=0p pd=0u as=0p ps=0u w=1e+06u l=150000u
X11 Y A VGND VNB sky130_fd_pr__nfet_01v8 ad=0p pd=0u as=0p ps=0u w=650000u l=150000u
X12 Y A VPWR VPB sky130_fd_pr__pfet_01v8_hvt ad=0p pd=0u as=0p ps=0u w=1e+06u l=150000u
X13 VPWR A Y VPB sky130_fd_pr__pfet_01v8_hvt ad=0p pd=0u as=0p ps=0u w=1e+06u l=150000u
X14 Y A VPWR VPB sky130_fd_pr__pfet_01v8_hvt ad=0p pd=0u as=0p ps=0u w=1e+06u l=150000u
X15 VGND A Y VNB sky130_fd_pr__nfet_01v8 ad=0p pd=0u as=0p ps=0u w=650000u l=150000u
X16 Y A VGND VNB sky130_fd_pr__nfet_01v8 ad=0p pd=0u as=0p ps=0u w=650000u l=150000u
X17 VGND A Y VNB sky130_fd_pr__nfet_01v8 ad=0p pd=0u as=0p ps=0u w=650000u l=150000u
X18 VGND A Y VNB sky130_fd_pr__nfet_01v8 ad=0p pd=0u as=0p ps=0u w=650000u l=150000u
X19 Y A VPWR VPB sky130_fd_pr__pfet_01v8_hvt ad=0p pd=0u as=0p ps=0u w=1e+06u l=150000u
X20 VGND A Y VNB sky130_fd_pr__nfet_01v8 ad=0p pd=0u as=0p ps=0u w=650000u l=150000u
X21 Y A VPWR VPB sky130_fd_pr__pfet_01v8_hvt ad=0p pd=0u as=0p ps=0u w=1e+06u l=150000u
X22 VPWR A Y VPB sky130_fd_pr__pfet_01v8_hvt ad=0p pd=0u as=0p ps=0u w=1e+06u l=150000u
X23 VPWR A Y VPB sky130_fd_pr__pfet_01v8_hvt ad=0p pd=0u as=0p ps=0u w=1e+06u l=150000u
X24 VPWR A Y VPB sky130_fd_pr__pfet_01v8_hvt ad=0p pd=0u as=0p ps=0u w=1e+06u l=150000u
X25 Y A VGND VNB sky130_fd_pr__nfet_01v8 ad=0p pd=0u as=0p ps=0u w=650000u l=150000u
X26 Y A VPWR VPB sky130_fd_pr__pfet_01v8_hvt ad=0p pd=0u as=0p ps=0u w=1e+06u l=150000u
X27 Y A VGND VNB sky130_fd_pr__nfet_01v8 ad=0p pd=0u as=0p ps=0u w=650000u l=150000u
X28 Y A VGND VNB sky130_fd_pr__nfet_01v8 ad=0p pd=0u as=0p ps=0u w=650000u l=150000u
X29 Y A VGND VNB sky130_fd_pr__nfet_01v8 ad=0p pd=0u as=0p ps=0u w=650000u l=150000u
X30 VPWR A Y VPB sky130_fd_pr__pfet_01v8_hvt ad=0p pd=0u as=0p ps=0u w=1e+06u l=150000u
X31 Y A VGND VNB sky130_fd_pr__nfet_01v8 ad=0p pd=0u as=0p ps=0u w=650000u l=150000u
.ends

.subckt decoder_3to8_top Y5 Y6 Y7 IN1 Y4 Y1 Y0 Y3 EN Y2 IN2 IN0 VP VN
Xsky130_fd_sc_hd__and4_4_2 IN2b IN1b IN0b EN VN VP Y0 VN VP sky130_fd_sc_hd__and4_4
Xsky130_fd_sc_hd__and4_4_3 IN2b IN1b IN0b EN VN VP Y0 VN VP sky130_fd_sc_hd__and4_4
Xsky130_fd_sc_hd__and4_4_4 IN2b IN1b IN0b EN VN VP Y0 VN VP sky130_fd_sc_hd__and4_4
Xsky130_fd_sc_hd__and4_4_5 IN2b IN1b IN0b EN VN VP Y0 VN VP sky130_fd_sc_hd__and4_4
Xsky130_fd_sc_hd__and4_4_6 IN2b IN1b IN0b EN VN VP Y0 VN VP sky130_fd_sc_hd__and4_4
Xsky130_fd_sc_hd__and4_4_7 IN2b IN1b IN0b EN VN VP Y0 VN VP sky130_fd_sc_hd__and4_4
Xsky130_fd_sc_hd__and4_4_8 IN2b IN1b IN0b EN VN VP Y0 VN VP sky130_fd_sc_hd__and4_4
Xsky130_fd_sc_hd__and4_4_9 IN2b IN1b IN0b EN VN VP Y0 VN VP sky130_fd_sc_hd__and4_4
Xsky130_fd_sc_hd__and4_4_70 IN2 IN1 IN0 EN VN VP Y7 VN VP sky130_fd_sc_hd__and4_4
Xsky130_fd_sc_hd__and4_4_60 IN2 IN1 IN0b EN VN VP Y6 VN VP sky130_fd_sc_hd__and4_4
Xsky130_fd_sc_hd__and4_4_71 IN2 IN1 IN0 EN VN VP Y7 VN VP sky130_fd_sc_hd__and4_4
Xsky130_fd_sc_hd__and4_4_50 IN2 IN1b IN0 EN VN VP Y5 VN VP sky130_fd_sc_hd__and4_4
Xsky130_fd_sc_hd__and4_4_61 IN2 IN1 IN0b EN VN VP Y6 VN VP sky130_fd_sc_hd__and4_4
Xsky130_fd_sc_hd__and4_4_72 IN2 IN1 IN0 EN VN VP Y7 VN VP sky130_fd_sc_hd__and4_4
Xsky130_fd_sc_hd__and4_4_40 IN2 IN1b IN0b EN VN VP Y4 VN VP sky130_fd_sc_hd__and4_4
Xsky130_fd_sc_hd__and4_4_51 IN2 IN1b IN0 EN VN VP Y5 VN VP sky130_fd_sc_hd__and4_4
Xsky130_fd_sc_hd__and4_4_62 IN2 IN1 IN0b EN VN VP Y6 VN VP sky130_fd_sc_hd__and4_4
Xsky130_fd_sc_hd__and4_4_73 IN2 IN1 IN0 EN VN VP Y7 VN VP sky130_fd_sc_hd__and4_4
Xsky130_fd_sc_hd__and4_4_30 IN2b IN1 IN0 EN VN VP Y3 VN VP sky130_fd_sc_hd__and4_4
Xsky130_fd_sc_hd__and4_4_41 IN2 IN1b IN0b EN VN VP Y4 VN VP sky130_fd_sc_hd__and4_4
Xsky130_fd_sc_hd__and4_4_52 IN2 IN1b IN0 EN VN VP Y5 VN VP sky130_fd_sc_hd__and4_4
Xsky130_fd_sc_hd__and4_4_63 IN2 IN1 IN0b EN VN VP Y6 VN VP sky130_fd_sc_hd__and4_4
Xsky130_fd_sc_hd__and4_4_74 IN2 IN1 IN0 EN VN VP Y7 VN VP sky130_fd_sc_hd__and4_4
Xsky130_fd_sc_hd__and4_4_75 IN2 IN1 IN0 EN VN VP Y7 VN VP sky130_fd_sc_hd__and4_4
Xsky130_fd_sc_hd__and4_4_20 IN2b IN1 IN0b EN VN VP Y2 VN VP sky130_fd_sc_hd__and4_4
Xsky130_fd_sc_hd__and4_4_31 IN2b IN1 IN0 EN VN VP Y3 VN VP sky130_fd_sc_hd__and4_4
Xsky130_fd_sc_hd__and4_4_42 IN2 IN1b IN0b EN VN VP Y4 VN VP sky130_fd_sc_hd__and4_4
Xsky130_fd_sc_hd__and4_4_53 IN2 IN1b IN0 EN VN VP Y5 VN VP sky130_fd_sc_hd__and4_4
Xsky130_fd_sc_hd__and4_4_64 IN2 IN1 IN0b EN VN VP Y6 VN VP sky130_fd_sc_hd__and4_4
Xsky130_fd_sc_hd__and4_4_76 IN2 IN1 IN0 EN VN VP Y7 VN VP sky130_fd_sc_hd__and4_4
Xsky130_fd_sc_hd__and4_4_65 IN2 IN1 IN0b EN VN VP Y6 VN VP sky130_fd_sc_hd__and4_4
Xsky130_fd_sc_hd__and4_4_10 IN2b IN1b IN0 EN VN VP Y1 VN VP sky130_fd_sc_hd__and4_4
Xsky130_fd_sc_hd__and4_4_21 IN2b IN1 IN0b EN VN VP Y2 VN VP sky130_fd_sc_hd__and4_4
Xsky130_fd_sc_hd__and4_4_32 IN2b IN1 IN0 EN VN VP Y3 VN VP sky130_fd_sc_hd__and4_4
Xsky130_fd_sc_hd__and4_4_43 IN2 IN1b IN0b EN VN VP Y4 VN VP sky130_fd_sc_hd__and4_4
Xsky130_fd_sc_hd__and4_4_54 IN2 IN1b IN0 EN VN VP Y5 VN VP sky130_fd_sc_hd__and4_4
Xsky130_fd_sc_hd__and4_4_77 IN2 IN1 IN0 EN VN VP Y7 VN VP sky130_fd_sc_hd__and4_4
Xsky130_fd_sc_hd__and4_4_66 IN2 IN1 IN0b EN VN VP Y6 VN VP sky130_fd_sc_hd__and4_4
Xsky130_fd_sc_hd__and4_4_55 IN2 IN1b IN0 EN VN VP Y5 VN VP sky130_fd_sc_hd__and4_4
Xsky130_fd_sc_hd__and4_4_11 IN2b IN1b IN0 EN VN VP Y1 VN VP sky130_fd_sc_hd__and4_4
Xsky130_fd_sc_hd__and4_4_22 IN2b IN1 IN0b EN VN VP Y2 VN VP sky130_fd_sc_hd__and4_4
Xsky130_fd_sc_hd__and4_4_33 IN2b IN1 IN0 EN VN VP Y3 VN VP sky130_fd_sc_hd__and4_4
Xsky130_fd_sc_hd__and4_4_44 IN2 IN1b IN0b EN VN VP Y4 VN VP sky130_fd_sc_hd__and4_4
Xsky130_fd_sc_hd__and4_4_78 IN2 IN1 IN0 EN VN VP Y7 VN VP sky130_fd_sc_hd__and4_4
Xsky130_fd_sc_hd__and4_4_67 IN2 IN1 IN0b EN VN VP Y6 VN VP sky130_fd_sc_hd__and4_4
Xsky130_fd_sc_hd__and4_4_56 IN2 IN1b IN0 EN VN VP Y5 VN VP sky130_fd_sc_hd__and4_4
Xsky130_fd_sc_hd__and4_4_45 IN2 IN1b IN0b EN VN VP Y4 VN VP sky130_fd_sc_hd__and4_4
Xsky130_fd_sc_hd__and4_4_12 IN2b IN1b IN0 EN VN VP Y1 VN VP sky130_fd_sc_hd__and4_4
Xsky130_fd_sc_hd__and4_4_23 IN2b IN1 IN0b EN VN VP Y2 VN VP sky130_fd_sc_hd__and4_4
Xsky130_fd_sc_hd__and4_4_34 IN2b IN1 IN0 EN VN VP Y3 VN VP sky130_fd_sc_hd__and4_4
Xsky130_fd_sc_hd__and4_4_79 IN2 IN1 IN0 EN VN VP Y7 VN VP sky130_fd_sc_hd__and4_4
Xsky130_fd_sc_hd__and4_4_68 IN2 IN1 IN0b EN VN VP Y6 VN VP sky130_fd_sc_hd__and4_4
Xsky130_fd_sc_hd__and4_4_57 IN2 IN1b IN0 EN VN VP Y5 VN VP sky130_fd_sc_hd__and4_4
Xsky130_fd_sc_hd__and4_4_46 IN2 IN1b IN0b EN VN VP Y4 VN VP sky130_fd_sc_hd__and4_4
Xsky130_fd_sc_hd__and4_4_35 IN2b IN1 IN0 EN VN VP Y3 VN VP sky130_fd_sc_hd__and4_4
Xsky130_fd_sc_hd__and4_4_13 IN2b IN1b IN0 EN VN VP Y1 VN VP sky130_fd_sc_hd__and4_4
Xsky130_fd_sc_hd__and4_4_24 IN2b IN1 IN0b EN VN VP Y2 VN VP sky130_fd_sc_hd__and4_4
Xsky130_fd_sc_hd__and4_4_69 IN2 IN1 IN0b EN VN VP Y6 VN VP sky130_fd_sc_hd__and4_4
Xsky130_fd_sc_hd__and4_4_58 IN2 IN1b IN0 EN VN VP Y5 VN VP sky130_fd_sc_hd__and4_4
Xsky130_fd_sc_hd__and4_4_47 IN2 IN1b IN0b EN VN VP Y4 VN VP sky130_fd_sc_hd__and4_4
Xsky130_fd_sc_hd__and4_4_36 IN2b IN1 IN0 EN VN VP Y3 VN VP sky130_fd_sc_hd__and4_4
Xsky130_fd_sc_hd__and4_4_25 IN2b IN1 IN0b EN VN VP Y2 VN VP sky130_fd_sc_hd__and4_4
Xsky130_fd_sc_hd__and4_4_14 IN2b IN1b IN0 EN VN VP Y1 VN VP sky130_fd_sc_hd__and4_4
Xsky130_fd_sc_hd__and4_4_59 IN2 IN1b IN0 EN VN VP Y5 VN VP sky130_fd_sc_hd__and4_4
Xsky130_fd_sc_hd__and4_4_48 IN2 IN1b IN0b EN VN VP Y4 VN VP sky130_fd_sc_hd__and4_4
Xsky130_fd_sc_hd__and4_4_37 IN2b IN1 IN0 EN VN VP Y3 VN VP sky130_fd_sc_hd__and4_4
Xsky130_fd_sc_hd__and4_4_26 IN2b IN1 IN0b EN VN VP Y2 VN VP sky130_fd_sc_hd__and4_4
Xsky130_fd_sc_hd__and4_4_15 IN2b IN1b IN0 EN VN VP Y1 VN VP sky130_fd_sc_hd__and4_4
Xsky130_fd_sc_hd__and4_4_49 IN2 IN1b IN0b EN VN VP Y4 VN VP sky130_fd_sc_hd__and4_4
Xsky130_fd_sc_hd__and4_4_38 IN2b IN1 IN0 EN VN VP Y3 VN VP sky130_fd_sc_hd__and4_4
Xsky130_fd_sc_hd__and4_4_27 IN2b IN1 IN0b EN VN VP Y2 VN VP sky130_fd_sc_hd__and4_4
Xsky130_fd_sc_hd__and4_4_16 IN2b IN1b IN0 EN VN VP Y1 VN VP sky130_fd_sc_hd__and4_4
Xsky130_fd_sc_hd__and4_4_39 IN2b IN1 IN0 EN VN VP Y3 VN VP sky130_fd_sc_hd__and4_4
Xsky130_fd_sc_hd__and4_4_28 IN2b IN1 IN0b EN VN VP Y2 VN VP sky130_fd_sc_hd__and4_4
Xsky130_fd_sc_hd__and4_4_17 IN2b IN1b IN0 EN VN VP Y1 VN VP sky130_fd_sc_hd__and4_4
Xsky130_fd_sc_hd__and4_4_29 IN2b IN1 IN0b EN VN VP Y2 VN VP sky130_fd_sc_hd__and4_4
Xsky130_fd_sc_hd__and4_4_18 IN2b IN1b IN0 EN VN VP Y1 VN VP sky130_fd_sc_hd__and4_4
Xsky130_fd_sc_hd__and4_4_19 IN2b IN1b IN0 EN VN VP Y1 VN VP sky130_fd_sc_hd__and4_4
Xsky130_fd_sc_hd__inv_16_0 IN0 VN VP IN0b VN VP sky130_fd_sc_hd__inv_16
Xsky130_fd_sc_hd__inv_16_1 IN1 VN VP IN1b VN VP sky130_fd_sc_hd__inv_16
Xsky130_fd_sc_hd__and4_4_0 IN2b IN1b IN0b EN VN VP Y0 VN VP sky130_fd_sc_hd__and4_4
Xsky130_fd_sc_hd__and4_4_1 IN2b IN1b IN0b EN VN VP Y0 VN VP sky130_fd_sc_hd__and4_4
Xsky130_fd_sc_hd__inv_16_2 IN2 VN VP IN2b VN VP sky130_fd_sc_hd__inv_16
.ends

.subckt top_interconnect WL4 col5_sel A2c latch_high5 row6_sel WL3 latch_high4 A3c
+ m4_556058_405560# WL2 A4c latch_high3 m2_510582_695380# col2_sel B0r power_interconnect_8/m4_556680_101952#
+ WL1 m4_555338_405560# A5c latch_high2 row3_sel B1r WL0 A6c latch_high1 WR SAMPLE
+ B2r A7c latch_high0 B3r A8c A10c power_interconnect_5/m4_555338_13760# row0_sel
+ B4r A9c A11c B5r power_interconnect_7/m4_557302_101232# A12c B6r A13c B7r A14c power_interconnect_6/m4_555960_102672#
+ Vrplus m4_557498_405560# B8r Vcminus A15c B9r m4_556778_405560# RISC_CLK power_interconnect_4/m4_557302_101232#
+ col3_sel row4_sel B10r RSEL1 B11r RSEL0 col0_sel power_interconnect_4/m4_555338_13760#
+ B12r row1_sel B0c B13r power_interconnect_4/m4_555960_102672# B1c m4_556778_499484#
+ B14r A0r RSEL2 B2c B15r A1r B3c Vref_comp power_interconnect_1/m4_556680_102672#
+ A2r m4_557498_499484# B4c power_interconnect_4/m4_556680_101952# A3r m4_556058_604820#
+ B5c A4r vssa1 m4_555338_604820# CSEL1 B6c power_interconnect_6/m4_555338_13760#
+ A5r power_interconnect_5/m4_555960_102672# B7c CSEL0 col4_sel WL15 A6r Vcplus row5_sel
+ B8c WL14 A7r Vgnr EN B9c WL13 A10r A8r power_interconnect_3/m4_557302_101232# col1_sel
+ WL12 A11r A9r Vgpr power_interconnect_1/m4_555960_101952# m4_555338_499484# row2_sel
+ WL11 A12r B10c WL10 A13r power_interconnect_6/m4_556680_101952# power_interconnect_8/m4_557302_101232#
+ power_interconnect_8/m4_555338_13760# WL9 A14r B11c vccd1 m4_557498_604820# power_interconnect_3/m4_555338_13760#
+ WL8 B12c A15r power_interconnect_1/m4_555338_13760# m4_556058_499484# Vref m4_556778_604820#
+ power_interconnect_7/m4_555960_102672# WL7 B13c Vrminus WL6 B14c A0c CSEL2 WL5 B15c
+ A1c VSUBS vdda1 m3_557498_235220# power_interconnect_3/m4_556680_101952#
Xdecoder_3to8_top_0 col5_sel decoder_3to8_top_0/Y6 decoder_3to8_top_0/Y7 CSEL1 col4_sel
+ col1_sel col0_sel col3_sel EN col2_sel CSEL2 CSEL0 vccd1 VSUBS decoder_3to8_top
Xdecoder_3to8_top_1 row5_sel row6_sel decoder_3to8_top_1/Y7 RSEL1 row4_sel row1_sel
+ row0_sel row3_sel EN row2_sel RSEL2 RSEL0 vccd1 VSUBS decoder_3to8_top
.ends

.subckt sky130_fd_sc_hd__inv_8 A VGND VPWR Y VNB VPB
X0 VPWR A Y VPB sky130_fd_pr__pfet_01v8_hvt ad=1.33e+12p pd=1.266e+07u as=1.08e+12p ps=1.016e+07u w=1e+06u l=150000u
X1 Y A VPWR VPB sky130_fd_pr__pfet_01v8_hvt ad=0p pd=0u as=0p ps=0u w=1e+06u l=150000u
X2 Y A VGND VNB sky130_fd_pr__nfet_01v8 ad=7.02e+11p pd=7.36e+06u as=8.645e+11p ps=9.16e+06u w=650000u l=150000u
X3 Y A VGND VNB sky130_fd_pr__nfet_01v8 ad=0p pd=0u as=0p ps=0u w=650000u l=150000u
X4 VPWR A Y VPB sky130_fd_pr__pfet_01v8_hvt ad=0p pd=0u as=0p ps=0u w=1e+06u l=150000u
X5 Y A VPWR VPB sky130_fd_pr__pfet_01v8_hvt ad=0p pd=0u as=0p ps=0u w=1e+06u l=150000u
X6 Y A VGND VNB sky130_fd_pr__nfet_01v8 ad=0p pd=0u as=0p ps=0u w=650000u l=150000u
X7 VPWR A Y VPB sky130_fd_pr__pfet_01v8_hvt ad=0p pd=0u as=0p ps=0u w=1e+06u l=150000u
X8 Y A VGND VNB sky130_fd_pr__nfet_01v8 ad=0p pd=0u as=0p ps=0u w=650000u l=150000u
X9 Y A VPWR VPB sky130_fd_pr__pfet_01v8_hvt ad=0p pd=0u as=0p ps=0u w=1e+06u l=150000u
X10 VPWR A Y VPB sky130_fd_pr__pfet_01v8_hvt ad=0p pd=0u as=0p ps=0u w=1e+06u l=150000u
X11 VGND A Y VNB sky130_fd_pr__nfet_01v8 ad=0p pd=0u as=0p ps=0u w=650000u l=150000u
X12 VGND A Y VNB sky130_fd_pr__nfet_01v8 ad=0p pd=0u as=0p ps=0u w=650000u l=150000u
X13 VGND A Y VNB sky130_fd_pr__nfet_01v8 ad=0p pd=0u as=0p ps=0u w=650000u l=150000u
X14 Y A VPWR VPB sky130_fd_pr__pfet_01v8_hvt ad=0p pd=0u as=0p ps=0u w=1e+06u l=150000u
X15 VGND A Y VNB sky130_fd_pr__nfet_01v8 ad=0p pd=0u as=0p ps=0u w=650000u l=150000u
.ends

.subckt comp_out_sel latch_high latch_high_col vccd1 row_sel vssd1
Xsky130_fd_sc_hd__inv_8_0 latch_high vssd1 vccd1 sky130_fd_sc_hd__inv_8_0/Y vssd1
+ vccd1 sky130_fd_sc_hd__inv_8
Xsky130_fd_sc_hd__inv_8_1 row_sel vssd1 vccd1 row_selb vssd1 vccd1 sky130_fd_sc_hd__inv_8
Xsky130_fd_sc_hd__inv_16_0 row_selb vssd1 vccd1 row_selbuff vssd1 vccd1 sky130_fd_sc_hd__inv_16
X0 vccd1 sky130_fd_sc_hd__inv_8_0/Y a_n8998_299# vccd1 sky130_fd_pr__pfet_01v8_hvt ad=1.242e+13p pd=1.1284e+08u as=1.325e+13p ps=1.165e+08u w=1e+06u l=150000u
X1 vssd1 sky130_fd_sc_hd__inv_8_0/Y a_n8997_49# vssd1 sky130_fd_pr__nfet_01v8 ad=8.05675e+12p pd=8.199e+07u as=8.59625e+12p ps=8.495e+07u w=650000u l=150000u
X2 a_n8998_299# row_selb latch_high_col vccd1 sky130_fd_pr__pfet_01v8_hvt ad=0p pd=0u as=5.9e+12p ps=5.18e+07u w=1e+06u l=150000u
X3 a_n8997_49# row_selbuff latch_high_col vssd1 sky130_fd_pr__nfet_01v8 ad=0p pd=0u as=3.835e+12p ps=3.78e+07u w=650000u l=150000u
X4 a_n8997_49# row_selbuff latch_high_col vssd1 sky130_fd_pr__nfet_01v8 ad=0p pd=0u as=0p ps=0u w=650000u l=150000u
X5 latch_high_col row_selbuff a_n8997_49# vssd1 sky130_fd_pr__nfet_01v8 ad=0p pd=0u as=0p ps=0u w=650000u l=150000u
X6 latch_high_col row_selb a_n8998_299# vccd1 sky130_fd_pr__pfet_01v8_hvt ad=0p pd=0u as=0p ps=0u w=1e+06u l=150000u
X7 vccd1 sky130_fd_sc_hd__inv_8_0/Y a_n8998_299# vccd1 sky130_fd_pr__pfet_01v8_hvt ad=0p pd=0u as=0p ps=0u w=1e+06u l=150000u
X8 a_n8997_49# sky130_fd_sc_hd__inv_8_0/Y vssd1 vssd1 sky130_fd_pr__nfet_01v8 ad=0p pd=0u as=0p ps=0u w=650000u l=150000u
X9 vssd1 sky130_fd_sc_hd__inv_8_0/Y a_n8997_49# vssd1 sky130_fd_pr__nfet_01v8 ad=0p pd=0u as=0p ps=0u w=650000u l=150000u
X10 a_n8997_49# row_selbuff latch_high_col vssd1 sky130_fd_pr__nfet_01v8 ad=0p pd=0u as=0p ps=0u w=650000u l=150000u
X11 a_n8998_299# sky130_fd_sc_hd__inv_8_0/Y vccd1 vccd1 sky130_fd_pr__pfet_01v8_hvt ad=0p pd=0u as=0p ps=0u w=1e+06u l=150000u
X12 latch_high_col row_selb a_n8998_299# vccd1 sky130_fd_pr__pfet_01v8_hvt ad=0p pd=0u as=0p ps=0u w=1e+06u l=150000u
X13 vccd1 sky130_fd_sc_hd__inv_8_0/Y a_n8998_299# vccd1 sky130_fd_pr__pfet_01v8_hvt ad=0p pd=0u as=0p ps=0u w=1e+06u l=150000u
X14 latch_high_col row_selbuff a_n8997_49# vssd1 sky130_fd_pr__nfet_01v8 ad=0p pd=0u as=0p ps=0u w=650000u l=150000u
X15 vssd1 sky130_fd_sc_hd__inv_8_0/Y a_n8997_49# vssd1 sky130_fd_pr__nfet_01v8 ad=0p pd=0u as=0p ps=0u w=650000u l=150000u
X16 latch_high_col row_selb a_n8998_299# vccd1 sky130_fd_pr__pfet_01v8_hvt ad=0p pd=0u as=0p ps=0u w=1e+06u l=150000u
X17 a_n8997_49# row_selbuff latch_high_col vssd1 sky130_fd_pr__nfet_01v8 ad=0p pd=0u as=0p ps=0u w=650000u l=150000u
X18 a_n8998_299# row_selb latch_high_col vccd1 sky130_fd_pr__pfet_01v8_hvt ad=0p pd=0u as=0p ps=0u w=1e+06u l=150000u
X19 latch_high_col row_selb a_n8998_299# vccd1 sky130_fd_pr__pfet_01v8_hvt ad=0p pd=0u as=0p ps=0u w=1e+06u l=150000u
X20 a_n8997_49# sky130_fd_sc_hd__inv_8_0/Y vssd1 vssd1 sky130_fd_pr__nfet_01v8 ad=0p pd=0u as=0p ps=0u w=650000u l=150000u
X21 a_n8998_299# sky130_fd_sc_hd__inv_8_0/Y vccd1 vccd1 sky130_fd_pr__pfet_01v8_hvt ad=0p pd=0u as=0p ps=0u w=1e+06u l=150000u
X22 a_n8997_49# sky130_fd_sc_hd__inv_8_0/Y vssd1 vssd1 sky130_fd_pr__nfet_01v8 ad=0p pd=0u as=0p ps=0u w=650000u l=150000u
X23 latch_high_col row_selb a_n8998_299# vccd1 sky130_fd_pr__pfet_01v8_hvt ad=0p pd=0u as=0p ps=0u w=1e+06u l=150000u
X24 a_n8997_49# sky130_fd_sc_hd__inv_8_0/Y vssd1 vssd1 sky130_fd_pr__nfet_01v8 ad=0p pd=0u as=0p ps=0u w=650000u l=150000u
X25 vccd1 sky130_fd_sc_hd__inv_8_0/Y a_n8998_299# vccd1 sky130_fd_pr__pfet_01v8_hvt ad=0p pd=0u as=0p ps=0u w=1e+06u l=150000u
X26 a_n8998_299# row_selb latch_high_col vccd1 sky130_fd_pr__pfet_01v8_hvt ad=0p pd=0u as=0p ps=0u w=1e+06u l=150000u
X27 vccd1 sky130_fd_sc_hd__inv_8_0/Y a_n8998_299# vccd1 sky130_fd_pr__pfet_01v8_hvt ad=0p pd=0u as=0p ps=0u w=1e+06u l=150000u
X28 a_n8998_299# sky130_fd_sc_hd__inv_8_0/Y vccd1 vccd1 sky130_fd_pr__pfet_01v8_hvt ad=0p pd=0u as=0p ps=0u w=1e+06u l=150000u
X29 a_n8997_49# sky130_fd_sc_hd__inv_8_0/Y vssd1 vssd1 sky130_fd_pr__nfet_01v8 ad=0p pd=0u as=0p ps=0u w=650000u l=150000u
X30 latch_high_col row_selbuff a_n8997_49# vssd1 sky130_fd_pr__nfet_01v8 ad=0p pd=0u as=0p ps=0u w=650000u l=150000u
X31 a_n8998_299# row_selb latch_high_col vccd1 sky130_fd_pr__pfet_01v8_hvt ad=0p pd=0u as=0p ps=0u w=1e+06u l=150000u
X32 vssd1 sky130_fd_sc_hd__inv_8_0/Y a_n8997_49# vssd1 sky130_fd_pr__nfet_01v8 ad=0p pd=0u as=0p ps=0u w=650000u l=150000u
X33 a_n8998_299# row_selb latch_high_col vccd1 sky130_fd_pr__pfet_01v8_hvt ad=0p pd=0u as=0p ps=0u w=1e+06u l=150000u
X34 vccd1 sky130_fd_sc_hd__inv_8_0/Y a_n8998_299# vccd1 sky130_fd_pr__pfet_01v8_hvt ad=0p pd=0u as=0p ps=0u w=1e+06u l=150000u
X35 a_n8997_49# row_selbuff latch_high_col vssd1 sky130_fd_pr__nfet_01v8 ad=0p pd=0u as=0p ps=0u w=650000u l=150000u
X36 a_n8998_299# sky130_fd_sc_hd__inv_8_0/Y vccd1 vccd1 sky130_fd_pr__pfet_01v8_hvt ad=0p pd=0u as=0p ps=0u w=1e+06u l=150000u
X37 a_n8997_49# row_selbuff latch_high_col vssd1 sky130_fd_pr__nfet_01v8 ad=0p pd=0u as=0p ps=0u w=650000u l=150000u
X38 a_n8997_49# sky130_fd_sc_hd__inv_8_0/Y vssd1 vssd1 sky130_fd_pr__nfet_01v8 ad=0p pd=0u as=0p ps=0u w=650000u l=150000u
X39 latch_high_col row_selb a_n8998_299# vccd1 sky130_fd_pr__pfet_01v8_hvt ad=0p pd=0u as=0p ps=0u w=1e+06u l=150000u
X40 vssd1 sky130_fd_sc_hd__inv_8_0/Y a_n8997_49# vssd1 sky130_fd_pr__nfet_01v8 ad=0p pd=0u as=0p ps=0u w=650000u l=150000u
X41 latch_high_col row_selbuff a_n8997_49# vssd1 sky130_fd_pr__nfet_01v8 ad=0p pd=0u as=0p ps=0u w=650000u l=150000u
X42 latch_high_col row_selb a_n8998_299# vccd1 sky130_fd_pr__pfet_01v8_hvt ad=0p pd=0u as=0p ps=0u w=1e+06u l=150000u
X43 latch_high_col row_selb a_n8998_299# vccd1 sky130_fd_pr__pfet_01v8_hvt ad=0p pd=0u as=0p ps=0u w=1e+06u l=150000u
X44 a_n8997_49# row_selbuff latch_high_col vssd1 sky130_fd_pr__nfet_01v8 ad=0p pd=0u as=0p ps=0u w=650000u l=150000u
X45 vccd1 sky130_fd_sc_hd__inv_8_0/Y a_n8998_299# vccd1 sky130_fd_pr__pfet_01v8_hvt ad=0p pd=0u as=0p ps=0u w=1e+06u l=150000u
X46 a_n8998_299# row_selb latch_high_col vccd1 sky130_fd_pr__pfet_01v8_hvt ad=0p pd=0u as=0p ps=0u w=1e+06u l=150000u
X47 a_n8998_299# sky130_fd_sc_hd__inv_8_0/Y vccd1 vccd1 sky130_fd_pr__pfet_01v8_hvt ad=0p pd=0u as=0p ps=0u w=1e+06u l=150000u
X48 a_n8998_299# row_selb latch_high_col vccd1 sky130_fd_pr__pfet_01v8_hvt ad=0p pd=0u as=0p ps=0u w=1e+06u l=150000u
X49 a_n8998_299# sky130_fd_sc_hd__inv_8_0/Y vccd1 vccd1 sky130_fd_pr__pfet_01v8_hvt ad=0p pd=0u as=0p ps=0u w=1e+06u l=150000u
X50 a_n8998_299# row_selb latch_high_col vccd1 sky130_fd_pr__pfet_01v8_hvt ad=0p pd=0u as=0p ps=0u w=1e+06u l=150000u
X51 a_n8997_49# sky130_fd_sc_hd__inv_8_0/Y vssd1 vssd1 sky130_fd_pr__nfet_01v8 ad=0p pd=0u as=0p ps=0u w=650000u l=150000u
X52 vssd1 sky130_fd_sc_hd__inv_8_0/Y a_n8997_49# vssd1 sky130_fd_pr__nfet_01v8 ad=0p pd=0u as=0p ps=0u w=650000u l=150000u
X53 a_n8997_49# sky130_fd_sc_hd__inv_8_0/Y vssd1 vssd1 sky130_fd_pr__nfet_01v8 ad=0p pd=0u as=0p ps=0u w=650000u l=150000u
X54 a_n8998_299# row_selb latch_high_col vccd1 sky130_fd_pr__pfet_01v8_hvt ad=0p pd=0u as=0p ps=0u w=1e+06u l=150000u
X55 vssd1 sky130_fd_sc_hd__inv_8_0/Y a_n8997_49# vssd1 sky130_fd_pr__nfet_01v8 ad=0p pd=0u as=0p ps=0u w=650000u l=150000u
X56 latch_high_col row_selbuff a_n8997_49# vssd1 sky130_fd_pr__nfet_01v8 ad=0p pd=0u as=0p ps=0u w=650000u l=150000u
X57 a_n8998_299# row_selb latch_high_col vccd1 sky130_fd_pr__pfet_01v8_hvt ad=0p pd=0u as=0p ps=0u w=1e+06u l=150000u
X58 a_n8998_299# sky130_fd_sc_hd__inv_8_0/Y vccd1 vccd1 sky130_fd_pr__pfet_01v8_hvt ad=0p pd=0u as=0p ps=0u w=1e+06u l=150000u
X59 latch_high_col row_selb a_n8998_299# vccd1 sky130_fd_pr__pfet_01v8_hvt ad=0p pd=0u as=0p ps=0u w=1e+06u l=150000u
X60 a_n8998_299# sky130_fd_sc_hd__inv_8_0/Y vccd1 vccd1 sky130_fd_pr__pfet_01v8_hvt ad=0p pd=0u as=0p ps=0u w=1e+06u l=150000u
X61 latch_high_col row_selbuff a_n8997_49# vssd1 sky130_fd_pr__nfet_01v8 ad=0p pd=0u as=0p ps=0u w=650000u l=150000u
X62 vccd1 sky130_fd_sc_hd__inv_8_0/Y a_n8998_299# vccd1 sky130_fd_pr__pfet_01v8_hvt ad=0p pd=0u as=0p ps=0u w=1e+06u l=150000u
X63 a_n8997_49# sky130_fd_sc_hd__inv_8_0/Y vssd1 vssd1 sky130_fd_pr__nfet_01v8 ad=0p pd=0u as=0p ps=0u w=650000u l=150000u
X64 latch_high_col row_selbuff a_n8997_49# vssd1 sky130_fd_pr__nfet_01v8 ad=0p pd=0u as=0p ps=0u w=650000u l=150000u
X65 latch_high_col row_selbuff a_n8997_49# vssd1 sky130_fd_pr__nfet_01v8 ad=0p pd=0u as=0p ps=0u w=650000u l=150000u
X66 a_n8997_49# row_selbuff latch_high_col vssd1 sky130_fd_pr__nfet_01v8 ad=0p pd=0u as=0p ps=0u w=650000u l=150000u
X67 latch_high_col row_selb a_n8998_299# vccd1 sky130_fd_pr__pfet_01v8_hvt ad=0p pd=0u as=0p ps=0u w=1e+06u l=150000u
X68 a_n8998_299# sky130_fd_sc_hd__inv_8_0/Y vccd1 vccd1 sky130_fd_pr__pfet_01v8_hvt ad=0p pd=0u as=0p ps=0u w=1e+06u l=150000u
X69 vccd1 sky130_fd_sc_hd__inv_8_0/Y a_n8998_299# vccd1 sky130_fd_pr__pfet_01v8_hvt ad=0p pd=0u as=0p ps=0u w=1e+06u l=150000u
X70 vccd1 sky130_fd_sc_hd__inv_8_0/Y a_n8998_299# vccd1 sky130_fd_pr__pfet_01v8_hvt ad=0p pd=0u as=0p ps=0u w=1e+06u l=150000u
X71 a_n8997_49# sky130_fd_sc_hd__inv_8_0/Y vssd1 vssd1 sky130_fd_pr__nfet_01v8 ad=0p pd=0u as=0p ps=0u w=650000u l=150000u
X72 a_n8998_299# row_selb latch_high_col vccd1 sky130_fd_pr__pfet_01v8_hvt ad=0p pd=0u as=0p ps=0u w=1e+06u l=150000u
X73 a_n8998_299# sky130_fd_sc_hd__inv_8_0/Y vccd1 vccd1 sky130_fd_pr__pfet_01v8_hvt ad=0p pd=0u as=0p ps=0u w=1e+06u l=150000u
X74 a_n8997_49# sky130_fd_sc_hd__inv_8_0/Y vssd1 vssd1 sky130_fd_pr__nfet_01v8 ad=0p pd=0u as=0p ps=0u w=650000u l=150000u
X75 a_n8998_299# row_selb latch_high_col vccd1 sky130_fd_pr__pfet_01v8_hvt ad=0p pd=0u as=0p ps=0u w=1e+06u l=150000u
X76 a_n8997_49# row_selbuff latch_high_col vssd1 sky130_fd_pr__nfet_01v8 ad=0p pd=0u as=0p ps=0u w=650000u l=150000u
X77 a_n8997_49# sky130_fd_sc_hd__inv_8_0/Y vssd1 vssd1 sky130_fd_pr__nfet_01v8 ad=0p pd=0u as=0p ps=0u w=650000u l=150000u
X78 a_n8998_299# row_selb latch_high_col vccd1 sky130_fd_pr__pfet_01v8_hvt ad=0p pd=0u as=0p ps=0u w=1e+06u l=150000u
X79 a_n8998_299# sky130_fd_sc_hd__inv_8_0/Y vccd1 vccd1 sky130_fd_pr__pfet_01v8_hvt ad=0p pd=0u as=0p ps=0u w=1e+06u l=150000u
X80 a_n8998_299# row_selb latch_high_col vccd1 sky130_fd_pr__pfet_01v8_hvt ad=0p pd=0u as=0p ps=0u w=1e+06u l=150000u
X81 vssd1 sky130_fd_sc_hd__inv_8_0/Y a_n8997_49# vssd1 sky130_fd_pr__nfet_01v8 ad=0p pd=0u as=0p ps=0u w=650000u l=150000u
X82 vccd1 sky130_fd_sc_hd__inv_8_0/Y a_n8998_299# vccd1 sky130_fd_pr__pfet_01v8_hvt ad=0p pd=0u as=0p ps=0u w=1e+06u l=150000u
X83 vssd1 sky130_fd_sc_hd__inv_8_0/Y a_n8997_49# vssd1 sky130_fd_pr__nfet_01v8 ad=0p pd=0u as=0p ps=0u w=650000u l=150000u
X84 latch_high_col row_selb a_n8998_299# vccd1 sky130_fd_pr__pfet_01v8_hvt ad=0p pd=0u as=0p ps=0u w=1e+06u l=150000u
X85 vssd1 sky130_fd_sc_hd__inv_8_0/Y a_n8997_49# vssd1 sky130_fd_pr__nfet_01v8 ad=0p pd=0u as=0p ps=0u w=650000u l=150000u
X86 vccd1 sky130_fd_sc_hd__inv_8_0/Y a_n8998_299# vccd1 sky130_fd_pr__pfet_01v8_hvt ad=0p pd=0u as=0p ps=0u w=1e+06u l=150000u
X87 latch_high_col row_selb a_n8998_299# vccd1 sky130_fd_pr__pfet_01v8_hvt ad=0p pd=0u as=0p ps=0u w=1e+06u l=150000u
X88 latch_high_col row_selb a_n8998_299# vccd1 sky130_fd_pr__pfet_01v8_hvt ad=0p pd=0u as=0p ps=0u w=1e+06u l=150000u
X89 latch_high_col row_selbuff a_n8997_49# vssd1 sky130_fd_pr__nfet_01v8 ad=0p pd=0u as=0p ps=0u w=650000u l=150000u
X90 vccd1 sky130_fd_sc_hd__inv_8_0/Y a_n8998_299# vccd1 sky130_fd_pr__pfet_01v8_hvt ad=0p pd=0u as=0p ps=0u w=1e+06u l=150000u
X91 a_n8997_49# row_selbuff latch_high_col vssd1 sky130_fd_pr__nfet_01v8 ad=0p pd=0u as=0p ps=0u w=650000u l=150000u
X92 latch_high_col row_selbuff a_n8997_49# vssd1 sky130_fd_pr__nfet_01v8 ad=0p pd=0u as=0p ps=0u w=650000u l=150000u
X93 latch_high_col row_selbuff a_n8997_49# vssd1 sky130_fd_pr__nfet_01v8 ad=0p pd=0u as=0p ps=0u w=650000u l=150000u
X94 latch_high_col row_selbuff a_n8997_49# vssd1 sky130_fd_pr__nfet_01v8 ad=0p pd=0u as=0p ps=0u w=650000u l=150000u
X95 vccd1 sky130_fd_sc_hd__inv_8_0/Y a_n8998_299# vccd1 sky130_fd_pr__pfet_01v8_hvt ad=0p pd=0u as=0p ps=0u w=1e+06u l=150000u
X96 vssd1 sky130_fd_sc_hd__inv_8_0/Y a_n8997_49# vssd1 sky130_fd_pr__nfet_01v8 ad=0p pd=0u as=0p ps=0u w=650000u l=150000u
X97 vccd1 sky130_fd_sc_hd__inv_8_0/Y a_n8998_299# vccd1 sky130_fd_pr__pfet_01v8_hvt ad=0p pd=0u as=0p ps=0u w=1e+06u l=150000u
X98 a_n8997_49# sky130_fd_sc_hd__inv_8_0/Y vssd1 vssd1 sky130_fd_pr__nfet_01v8 ad=0p pd=0u as=0p ps=0u w=650000u l=150000u
X99 a_n8998_299# sky130_fd_sc_hd__inv_8_0/Y vccd1 vccd1 sky130_fd_pr__pfet_01v8_hvt ad=0p pd=0u as=0p ps=0u w=1e+06u l=150000u
X100 latch_high_col row_selbuff a_n8997_49# vssd1 sky130_fd_pr__nfet_01v8 ad=0p pd=0u as=0p ps=0u w=650000u l=150000u
X101 vssd1 sky130_fd_sc_hd__inv_8_0/Y a_n8997_49# vssd1 sky130_fd_pr__nfet_01v8 ad=0p pd=0u as=0p ps=0u w=650000u l=150000u
X102 a_n8997_49# row_selbuff latch_high_col vssd1 sky130_fd_pr__nfet_01v8 ad=0p pd=0u as=0p ps=0u w=650000u l=150000u
X103 latch_high_col row_selb a_n8998_299# vccd1 sky130_fd_pr__pfet_01v8_hvt ad=0p pd=0u as=0p ps=0u w=1e+06u l=150000u
X104 a_n8998_299# row_selb latch_high_col vccd1 sky130_fd_pr__pfet_01v8_hvt ad=0p pd=0u as=0p ps=0u w=1e+06u l=150000u
X105 vccd1 sky130_fd_sc_hd__inv_8_0/Y a_n8998_299# vccd1 sky130_fd_pr__pfet_01v8_hvt ad=0p pd=0u as=0p ps=0u w=1e+06u l=150000u
X106 vssd1 sky130_fd_sc_hd__inv_8_0/Y a_n8997_49# vssd1 sky130_fd_pr__nfet_01v8 ad=0p pd=0u as=0p ps=0u w=650000u l=150000u
X107 latch_high_col row_selbuff a_n8997_49# vssd1 sky130_fd_pr__nfet_01v8 ad=0p pd=0u as=0p ps=0u w=650000u l=150000u
X108 latch_high_col row_selb a_n8998_299# vccd1 sky130_fd_pr__pfet_01v8_hvt ad=0p pd=0u as=0p ps=0u w=1e+06u l=150000u
X109 a_n8997_49# sky130_fd_sc_hd__inv_8_0/Y vssd1 vssd1 sky130_fd_pr__nfet_01v8 ad=0p pd=0u as=0p ps=0u w=650000u l=150000u
X110 vccd1 sky130_fd_sc_hd__inv_8_0/Y a_n8998_299# vccd1 sky130_fd_pr__pfet_01v8_hvt ad=0p pd=0u as=0p ps=0u w=1e+06u l=150000u
X111 latch_high_col row_selbuff a_n8997_49# vssd1 sky130_fd_pr__nfet_01v8 ad=0p pd=0u as=0p ps=0u w=650000u l=150000u
X112 latch_high_col row_selb a_n8998_299# vccd1 sky130_fd_pr__pfet_01v8_hvt ad=0p pd=0u as=0p ps=0u w=1e+06u l=150000u
X113 vssd1 sky130_fd_sc_hd__inv_8_0/Y a_n8997_49# vssd1 sky130_fd_pr__nfet_01v8 ad=0p pd=0u as=0p ps=0u w=650000u l=150000u
X114 latch_high_col row_selbuff a_n8997_49# vssd1 sky130_fd_pr__nfet_01v8 ad=0p pd=0u as=0p ps=0u w=650000u l=150000u
X115 vssd1 sky130_fd_sc_hd__inv_8_0/Y a_n8997_49# vssd1 sky130_fd_pr__nfet_01v8 ad=0p pd=0u as=0p ps=0u w=650000u l=150000u
X116 vssd1 sky130_fd_sc_hd__inv_8_0/Y a_n8997_49# vssd1 sky130_fd_pr__nfet_01v8 ad=0p pd=0u as=0p ps=0u w=650000u l=150000u